%chk=35DMP_ion_opt.chk
# opt freq hf/3-21g pop=full geom=connectivity

35 DMP ion opt

1 1
 C                  0.00000400    1.17915500    1.08304700
 C                  0.00000000    1.21872300   -0.28972600
 C                  0.00000000    0.00000000   -0.96178000
 C                  0.00000000   -1.21872300   -0.28972600
 C                 -0.00000400   -1.17915500    1.08304700
 N                  0.00000000    0.00000000    1.72331400
 H                  0.00000000    0.00000000   -2.03486600
 H                  0.00000900    2.06017600    1.68792200
 H                 -0.00000900   -2.06017600    1.68792200
 C                  0.00006000   -2.53335500   -1.04056200
 H                  0.87991400   -2.60767800   -1.66839300
 H                 -0.00065800   -3.37416400   -0.36010200
 H                 -0.87901100   -2.60712400   -1.66954600
 C                 -0.00006000    2.53335500   -1.04056200
 H                  0.87901100    2.60712400   -1.66954600
 H                 -0.87991400    2.60767800   -1.66839300
 H                  0.00065800    3.37416400   -0.36010200
 H                  0.00000000    0.00000000    2.72947900

 1 2 2.0 6 1.5 8 1.0
 2 3 1.5 14 1.0
 3 4 1.5 7 1.0
 4 5 2.0 10 1.0
 5 6 1.5 9 1.0
 6 18 1.0
 7
 8
 9
 10 11 1.0 12 1.0 13 1.0
 11
 12
 13
 14 15 1.0 16 1.0 17 1.0
 15
 16
 17
 18

