%chk=meth_cyclobutadiene_sp.chk
# opt freq am1 pop=full geom=connectivity

Optimisation

0 1
 C                  0.79876100    0.97901400   -0.00000400
 C                  1.63827300   -0.04351700   -0.00002600
 C                  0.41098300   -1.06445100    0.00000300
 C                 -0.43918600   -0.04877300   -0.00005200
 H                  0.89144300    2.04112700    0.00010600
 H                  2.69911600   -0.14942500    0.00010900
 H                  0.31816100   -2.12650600    0.00009900
 C                 -1.91378600    0.12734100    0.00001500
 H                 -2.23167000    0.68541400   -0.87647300
 H                 -2.41564700   -0.83328600   -0.00022300
 H                 -2.23167000    0.68499300    0.87676500

 1 2 2.0 4 1.0 5 1.0
 2 3 1.0 6 1.0
 3 4 2.0 7 1.0
 4 8 1.0
 5
 6
 7
 8 9 1.0 10 1.0 11 1.0
 9
 10
 11

