%chk=meth_cyclobutadiene_isomer_opt.chk
# opt freq am1 pop=full geom=connectivity

Optimisation

0 1
 C                 -0.53203200   -1.04390900    0.00001200
 C                 -1.49950700   -0.12636300    0.00010200
 C                 -0.52880500    1.07836100   -0.00006900
 C                  0.56737600   -0.03299100   -0.00006000
 H                 -0.52789400   -2.11132600   -0.00035000
 H                 -2.56500300   -0.18258200    0.00013700
 H                 -0.54653700    1.68966600    0.89136100
 C                  1.87760500   -0.04119200    0.00006100
 H                  2.44391300    0.87066700    0.00015700
 H                  2.43416900   -0.95941600   -0.00000900
 H                 -0.54647100    1.68955200   -0.89157300

 1 2 2.0 4 1.0 5 1.0
 2 3 1.0 6 1.0
 3 4 1.0 7 1.0 11 1.0
 4 8 2.0
 5
 6
 7
 8 9 1.0 10 1.0
 9
 10
 11

