%chk=TMA_sp.chk
# hf/3-21g pop=full geom=connectivity

TMA sp

0 1
 N                  0.00000000    0.00000000    0.33752800
 C                  0.00000000    1.40966600   -0.05713600
 H                 -0.87773000    1.89746800    0.34837000
 H                  0.87773000    1.89746800    0.34837000
 H                  0.00000000    1.54587400   -1.14149000
 C                 -1.22080600   -0.70483300   -0.05713600
 H                 -1.20439100   -1.70887100    0.34837000
 H                 -2.08212100   -0.18859800    0.34837000
 H                 -1.33876600   -0.77293700   -1.14149000
 C                  1.22080600   -0.70483300   -0.05713600
 H                  2.08212100   -0.18859800    0.34837000
 H                  1.20439100   -1.70887100    0.34837000
 H                  1.33876600   -0.77293700   -1.14149000

 1 2 1.0 6 1.0 10 1.0
 2 3 1.0 4 1.0 5 1.0
 3
 4
 5
 6 7 1.0 8 1.0 9 1.0
 7
 8
 9
 10 11 1.0 12 1.0 13 1.0
 11
 12
 13

