%chk=TMA_ion_opt.chk
# opt freq hf/3-21g pop=full geom=connectivity

TMA+ opt

1 1
 N                  0.00017638    0.00055115    0.43709946
 C                 -0.00023675    1.38584365   -0.05469778
 H                 -0.87381633    1.89057695    0.30167704
 H                  0.87348618    1.89084048    0.30095154
 H                 -0.00068082    1.38445567   -1.12469679
 C                 -1.20017195   -0.69322954   -0.05150287
 H                 -1.19987123   -1.70157170    0.30647199
 H                 -2.07375153   -0.18849624    0.30487195
 H                 -1.20061601   -0.69461751   -1.12150188
 C                  1.20032777   -0.69286749   -0.05249959
 H                  2.07405070   -0.18787067    0.30314973
 H                  1.20062848   -1.70120965    0.30547527
 H                  1.19988370   -0.69425547   -1.12249860
 H                  0.00059140    0.00184832    1.43709854

 1 2 1.0 6 1.0 10 1.0 14 1.0
 2 3 1.0 4 1.0 5 1.0
 3
 4
 5
 6 7 1.0 8 1.0 9 1.0
 7
 8
 9
 10 11 1.0 12 1.0 13 1.0
 11
 12
 13
 14

