%chk=TMA_ion_sp.chk
# hf/3-21g pop=full geom=connectivity

TMA+ sp

1 1
 N                  0.00000000    0.00000000    0.35839000
 C                  0.00000000    1.44799400   -0.10780900
 H                 -0.88627500    1.93352500    0.26959000
 H                  0.88627500    1.93352500    0.26959000
 H                  0.00000000    1.45004200   -1.18639200
 C                 -1.25400000   -0.72399700   -0.10780900
 H                 -1.23134400   -1.73429900    0.26959000
 H                 -2.11761900   -0.19922500    0.26959000
 H                 -1.25577300   -0.72502100   -1.18639200
 C                  1.25400000   -0.72399700   -0.10780900
 H                  2.11761900   -0.19922500    0.26959000
 H                  1.23134400   -1.73429900    0.26959000
 H                  1.25577300   -0.72502100   -1.18639200
 H                  0.00000000    0.00000000    1.37346300

 1 2 1.0 6 1.0 10 1.0 14 1.0
 2 3 1.0 4 1.0 5 1.0
 3
 4
 5
 6 7 1.0 8 1.0 9 1.0
 7
 8
 9
 10 11 1.0 12 1.0 13 1.0
 11
 12
 13
 14

