%chk=NH3_Bcl3_sp.chk
# hf/3-21g pop=full geom=connectivity

Title Card Required

0 1
 B                  0.00000000    0.00000000    0.11465600
 Cl                 0.00000000    1.81064900   -0.37254900
 Cl                 1.56806800   -0.90532400   -0.37254900
 Cl                -1.56806800   -0.90532400   -0.37254900
 N                  0.00000000    0.00000000    1.74091500
 H                  0.82935600    0.47882900    2.08011100
 H                 -0.82935600    0.47882900    2.08011100
 H                  0.00000000   -0.95765800    2.08011100

 1 2 1.0 3 1.0 4 1.0 5 1.0
 2
 3
 4
 5 6 1.0 7 1.0 8 1.0
 6
 7
 8

