%chk=NH3_Bcl3_opt.chk
# opt freq hf/3-21g pop=full geom=connectivity

Title Card Required

0 1
 B                 -2.73254366   -1.31033674    0.40172143
 Cl                -3.48719995   -2.82649652    1.19459810
 Cl                -0.96490357   -1.11844230    0.98096665
 Cl                -3.71621877    0.20330343    0.88975497
 N                 -2.75730716   -1.47034328   -1.16996068
 H                 -2.23127769   -2.27977652   -1.43094118
 H                 -3.70256924   -1.57296062   -1.47971749
 H                 -2.35374764   -0.65956265   -1.59395890

 1 2 1.0 3 1.0 4 1.0 5 1.0
 2
 3
 4
 5 6 1.0 7 1.0 8 1.0
 6
 7
 8

