%nproc=20
%mem=15GB
%chk=cycloheptatrienyl_cation_isomer.chk
#p hf/3-21g opt freq gfinput gfprint pop=full

optimisation

1 1
 C                 -0.98946801    1.15870652   -0.41617569
 C                  0.41022924    1.15536016   -0.28643941
 C                  1.30427753    2.18987353    0.14495223
 C                 -1.93501140    2.22061503   -0.22405244
 C                  0.92094865    3.32034357    0.76313089
 C                 -1.57338622    3.59968596    0.32192285
 C                 -0.47357374    3.37754239    1.30893005
 H                 -1.41576452    0.22561673   -0.72033803
 H                  0.88531658    0.23883721   -0.56782475
 H                  2.34938401    2.05321135   -0.03937327
 H                  1.58933681    4.14972248    0.86456008
 H                 -0.67463416    3.23829772    2.35060449
 C                 -3.22992294    1.98446521   -0.54654958
 H                 -3.51969513    1.02916821   -0.93169855
 H                 -3.96254992    2.75330979   -0.41602867
 H                 -1.24735952    4.23610263   -0.47405479
 H                 -2.41515905    4.04995993    0.80521558


















