%nproc=20
%mem=15GB
%chk=meth_cyclobutadiene.chk
#p hf/3-21g opt freq gfinput gfprint pop=full

Optimisation

0 1
 C                  0.16939890    1.05464474    0.00000000
 C                  1.71264590    1.05464474    0.00000000
 C                  1.71258490    2.59783474    0.00000000
 C                  0.16935590    2.59783174   -0.00027000
 H                 -0.28359510    0.60153174   -0.90642000
 H                  2.16555390    0.60183174   -0.90661500
 H                  2.16551090    3.05058874   -0.90665600
 C                 -0.45866089    3.22561270   -1.25847744
 H                 -1.51323872    3.04460063   -1.25896188
 H                 -0.27779382    4.28021533   -1.25910873
 H                 -0.02129925    2.78820741   -2.13157046


