%chk=PH3_only_adduct_sp.chk
# hf/3-21g pop=full geom=connectivity

Title Card Required

0 1
 P                  0.00000000    0.00000000    1.93199400
 H                  1.06668300    0.61585000    2.62952600
 H                 -1.06668300    0.61584900    2.62952600
 H                  0.00000000   -1.23170000    2.62952600

 1 2 1.0 3 1.0 4 1.0
 2
 3
 4

