%chk=PH3_BF3_adduct_opt.chk
# opt freq hf/3-21g pop=full geom=connectivity

Title Card Required

0 1
 B                  0.62825191    0.41968728    0.53165228
 F                  0.12900556    1.64321809   -0.08909358
 F                 -0.19054198   -0.71142785    0.10532479
 F                  2.01316732    0.19824544    0.12597652
 P                  0.53984843    0.59024925    2.45206719
 H                  1.29695237    1.63614338    2.84627412
 H                 -0.74072403    0.79500711    2.82717834
 H                  1.00148034   -0.54109774    3.02604453

 1 2 1.0 3 1.0 4 1.0 5 1.0
 2
 3
 4
 5 6 1.0 7 1.0 8 1.0
 6
 7
 8

