%chk=py_BCl3_adduct_opt.chk
# opt freq hf/3-21g pop=full geom=connectivity

Title Card Required

0 1
 C                 -2.81594632   -0.02743140    0.04866328
 C                 -1.40906832   -0.02743140    0.04866328
 C                 -0.74237732    1.19917560    0.04866328
 C                 -1.49645032    2.37396260    0.04842228
 C                 -2.89965232    2.27115760    0.04828128
 N                 -3.55918232    1.09620660    0.04846628
 H                  0.35616668    1.23895160    0.04771328
 H                 -3.38149332   -0.97625240    0.04878528
 H                 -0.85433632   -0.97433240    0.04892728
 H                 -1.01241432    3.35888660    0.04832128
 H                 -3.53300132    3.17622060    0.04820028
 B                 -5.10448002    0.44135566    0.31906796
 Cl                -5.54961147    0.62044775    2.12646498
 Cl                -6.35946122    1.35309117   -0.72527899
 Cl                -5.10419482   -1.36980798   -0.14632028

 1 2 1.5 6 1.5 8 1.0
 2 3 1.5 9 1.0
 3 4 1.5 7 1.0
 4 5 1.5 10 1.0
 5 6 1.5 11 1.0
 6 12 1.0
 7
 8
 9
 10
 11
 12 13 1.0 14 1.0 15 1.0
 13
 14
 15

