%chk=AlCl4_ion_opt.chk
# opt freq hf/3-21g pop=full geom=connectivity

Title Card Required

-1 1
 Al                 0.39795083    0.07296108    0.00000000
 Cl                 0.39795083    0.07296108    2.24000000
 Cl                -0.65799530   -1.75599126   -0.74666667
 Cl                 2.50984308    0.07296108   -0.74666667
 Cl                -0.65799530    1.90191343   -0.74666667

 1 2 1.0 3 1.0 4 1.0 5 1.0
 2
 3
 4
 5

