%chk=toluene.chk
# opt freq am1 geom=connectivity

Title Card Required

0 1
 C                 -2.81402199   -2.31369976    0.00369092
 C                 -1.41886199   -2.31369976    0.00369092
 C                 -0.72132399   -1.10594876    0.00369092
 C                 -1.41897799    0.10256024    0.00249192
 C                 -2.81380299    0.10248224    0.00201292
 C                 -3.51140399   -1.10572376    0.00300892
 H                 -3.36378099   -3.26601676    0.00414092
 H                 -0.86935399   -3.26621276    0.00500592
 H                  0.37835601   -1.10586876    0.00432492
 H                 -3.36392499    1.05476324    0.00105992
 H                 -4.61100799   -1.10554076    0.00282892
 C                 -0.64847392    1.43594820    0.00240930
 H                 -0.44950107    1.73296611    1.01091818
 H                  0.27594475    1.31366906   -0.52237441
 H                 -1.23651547    2.18765394   -0.48137331

 1 2 1.5 6 1.5 7 1.0
 2 3 1.5 8 1.0
 3 4 1.5 9 1.0
 4 5 1.5 12 1.0
 5 6 1.5 10 1.0
 6 11 1.0
 7
 8
 9
 10
 11
 12 13 1.0 14 1.0 15 1.0
 13
 14
 15

