%chk=BH4_ion_opt.chk
# opt freq hf/3-21g pop=full geom=connectivity

Title Card Required

-1 1
 B                  0.46431694    0.95076750    0.00000000
 H                  1.57683161    0.95076750   -0.39333333
 H                 -0.09194039    1.91423346   -0.39333334
 H                 -0.09194039   -0.01269847   -0.39333334
 H                  0.46431694    0.95076750    1.18000000

 1 2 1.0 3 1.0 4 1.0 5 1.0
 2
 3
 4
 5

