%chk=meth_furan_isomer_opt.chk
# opt freq am1 pop=full geom=connectivity

methyl_furan_isomer opt freq with AM1

0 1
 C                  1.46823300    0.68597400   -0.00000300
 C                  0.17283600    1.15657300    0.00000600
 C                 -0.69358400   -0.00867900   -0.00000100
 C                  0.13842000   -1.11275600   -0.00000200
 O                  1.47355600   -0.70968400   -0.00000100
 H                  2.45477300    1.13869400    0.00001000
 H                 -0.16251000    2.18917800   -0.00001400
 C                 -2.15615900    0.01922200    0.00000000
 H                 -0.05385102   -1.70100271   -0.87286950
 H                 -0.05385170   -1.70100480    0.87286394
 H                 -2.68216629    0.49575251   -0.80070906
 H                 -2.69995706   -0.43689992    0.80070997

 1 2 2.0 5 1.0 6 1.0
 2 3 1.0 7 1.0
 3 4 1.0 8 2.0
 4 5 1.0 9 1.0 10 1.0
 5
 6
 7
 8 11 1.0 12 1.0
 9
 10
 11
 12

