%chk=meth_furan_opt.chk
# opt freq am1 pop=full geom=connectivity

methyl_furan opt freq with AM1

0 1
 C                 -0.04870729    1.06628909   -0.04160513
 C                  1.29580786    1.04900551   -0.09981196
 C                  1.74644049    2.48388424   -0.00183994
 C                  0.63021282    3.22812841    0.10561331
 O                 -0.56741672    2.42531881   -0.09434878
 H                 -0.65941124    0.19112516    0.03604016
 H                  1.92206996    0.18572741   -0.18610626
 H                  0.62392162    4.27759227    0.31414632
 C                  3.19877811    2.99602371   -0.00718853
 H                  3.56876016    3.02979334    0.99624203
 H                  3.80742629    2.33641471   -0.58973754
 H                  3.22923960    3.97770025   -0.43178631

 1 2 2.0 5 1.0 6 1.0
 2 3 1.0 7 1.0
 3 4 2.0 9 1.0
 4 5 1.0 8 1.0
 5
 6
 7
 8
 9 10 1.0 11 1.0 12 1.0
 10
 11
 12

