%chk=BH3_only_adduct_sp.chk
# hf/3-21g pop=full geom=connectivity

Title Card Required

0 1
 B                  1.58124400   -0.00001100    0.00002700
 H                  1.79803800   -1.05288700    0.52919000
 H                  1.79813000    0.98484700    0.64701400
 H                  1.79814900    0.06811500   -1.17638900

 1 2 1.0 3 1.0 4 1.0
 2
 3
 4

