%chk=PH3_BH3_adduct_opt.chk
# opt freq hf/3-21g pop=full geom=connectivity

Title Card Required

0 1
 P                 -1.41797467    1.55885091   -0.08731428
 H                 -0.96799012    0.28605324   -0.08731428
 H                 -0.96796688    2.19524115    1.01495631
 H                 -0.96796688    2.19524115   -1.18958487
 B                 -1.75624639    1.32373109   -2.25857909
 H                 -0.57624639    1.32373109   -2.25857909
 H                 -2.34624639    2.34564106   -2.25857909
 H                 -2.34624639    0.30182111   -2.25857909

 1 2 1.0 3 1.0 4 1.0 5 1.0
 2
 3
 4
 5 6 1.0 7 1.0 8 1.0
 6
 7
 8

