%chk=PH3_only_adduct_sp.chk
# hf/3-21g pop=full geom=connectivity

Title Card Required

0 1
 P                 -0.63105400    0.00000300   -0.00002300
 H                 -1.27829200   -1.04463100   -0.68524500
 H                 -1.27845200    1.11582900   -0.56177100
 H                 -1.27798200   -0.07126000    1.24740800

 1 2 1.0 3 1.0 4 1.0
 2
 3
 4

