%chk=pyridine_ion_sp.chk
# hf/3-21g pop=full geom=connectivity

pyridine+ sp

1 1
 C                  0.65880100   -1.17931400   -0.00020800
 C                 -0.71009300   -1.20422500   -0.00011800
 C                 -1.40263400    0.00000000    0.00009600
 C                 -0.71009300    1.20422400    0.00021400
 C                  0.65880100    1.17931400    0.00011800
 N                  1.30363600    0.00000000   -0.00008900
 H                 -2.47347700    0.00000000    0.00016900
 H                  1.25814700   -2.06399400   -0.00037100
 H                 -1.22358400   -2.14132900   -0.00021200
 H                 -1.22358500    2.14132900    0.00037900
 H                  1.25814700    2.06399400    0.00019900
 H                  2.31020700    0.00000000   -0.00015900

 1 2 2.0 6 1.5 8 1.0
 2 3 1.5 9 1.0
 3 4 1.5 7 1.0
 4 5 2.0 10 1.0
 5 6 1.5 11 1.0
 6 12 1.0
 7
 8
 9
 10
 11
 12

