%chk=BF4_ion_opt.chk
# opt freq hf/3-21g pop=full geom=connectivity

BF4- opt

-1 1
 B                  0.23497267    1.12021851    0.00000000
 F                 -1.22502733    1.12023650    0.00000000
 F                  0.72164776    1.80846277   -1.19208523
 F                  0.72162264   -0.25628860    0.00000000
 F                  0.72164776    1.80846277    1.19208523

 1 2 1.0 3 1.0 4 1.0 5 1.0
 2
 3
 4
 5

