%chk=NH3_only_adduct_sp.chk
# hf/3-21g pop=full geom=connectivity

NH3 - AlCl3 Adduct Optimisation

0 1
 N                  0.00006400   -0.00035800    1.98164100
 H                 -0.95234000    0.00626900    2.33403400
 H                  0.47042800   -0.82858600    2.33393000
 H                  0.48204900    0.82101400    2.33426000

 1 2 1.0 3 1.0 4 1.0
 2
 3
 4

