%chk=NH3_AlCl3_opt.chk
# opt freq hf/3-21g pop=full geom=connectivity

NH3 - AlCl3 Adduct Optimisation

0 1
 Al                -3.26563421   -0.26381785   -1.11642498
 Cl                -1.02563421   -0.26381785   -1.11642498
 Cl                -4.38563421   -2.20371475   -1.11642498
 Cl                -4.38563421    1.67607905   -1.11642498
 N                 -3.76603819   -0.75245577   -2.99014556
 H                 -3.05891204   -1.34159538   -3.38115341
 H                 -4.63996567   -1.23849267   -2.98579796
 H                 -3.84943885    0.07840176   -3.54034560

 1 2 1.0 3 1.0 4 1.0 5 1.0
 2
 3
 4
 5 6 1.0 7 1.0 8 1.0
 6
 7
 8

