%chk=BH3_only_adduct_sp.chk
# hf/3-21g pop=full geom=connectivity

Title Card Required

0 1
 B                 -0.95633500    0.00018500   -0.00009400
 H                 -1.25877200   -0.74339500   -0.90358100
 H                 -1.25881300   -0.41135200    1.09531600
 H                 -1.25897800    1.15435900   -0.19168900

 1 2 1.0 3 1.0 4 1.0
 2
 3
 4

