%chk=NH3_BH3_adduct_opt.chk
# opt freq hf/3-21g pop=full geom=connectivity

Title Card Required

0 1
 N                 -1.50850858    1.07049583    0.22965158
 H                 -1.17518669    0.12768275    0.22965158
 H                 -1.17516948    1.54189601    1.04614832
 H                 -1.17516948    1.54189601   -0.58684515
 B                 -2.82931536    0.39850570    1.08287998
 H                 -1.64931536    0.39850570    1.08287998
 H                 -3.41931536    1.42041567    1.08287998
 H                 -3.41931536   -0.62340428    1.08287998

 1 2 1.0 3 1.0 4 1.0 5 1.0
 2
 3
 4
 5 6 1.0 7 1.0 8 1.0
 6
 7
 8

