%chk=BH3_ion_sp.chk
# hf/3-21g pop=full geom=connectivity

Title Card Required

1 2
 B                  0.00000000    0.00000000    0.15510600
 H                  0.00000000    1.16988100   -0.25851000
 H                  1.01314700   -0.58494100   -0.25851000
 H                 -1.01314700   -0.58494100   -0.25851000

 1 2 1.0 3 1.0 4 1.0
 2
 3
 4

