%chk=meth_pyridine_isomer_sp.chk
# hf/3-21g* pop=full geom=connectivity

meth-pyridine_isomer sp with HF3-21G*

0 1
 C                 -1.01193800    0.02939600   -0.00021800
 C                 -0.22625100    1.25434400   -0.00049300
 C                  1.12845800    1.21452700    0.00003100
 C                  1.22824100   -1.09332100    0.00009800
 C                 -0.25990200   -1.26372200   -0.00042400
 H                 -0.77265500    2.20839300   -0.00101300
 H                  1.75363500    2.12395900    0.00034800
 H                  1.82354600   -2.02660300    0.00004700
 N                  1.87632800    0.02637100    0.00049900
 C                 -2.35283300    0.04759900    0.00049800
 H                 -0.54922400   -1.86694300    0.90426200
 H                 -0.54849500   -1.86647600   -0.90568100
 H                 -2.92610900    0.98298700    0.00080000
 H                 -2.94964500   -0.87284500    0.00080200

 1 2 1.0 5 1.0 10 2.0
 2 3 2.0 6 1.0
 3 7 1.0 9 1.0
 4 5 1.0 8 1.0 9 2.0
 5 11 1.0 12 1.0
 6
 7
 8
 9
 10 13 1.0 14 1.0
 11
 12
 13
 14

