%chk=meth_pyridine_opt.chk
# opt freq am1 pop=full geom=connectivity

meth-pyridine opt freq with AM1

0 1
 C                  0.00000484   -1.37721840   -0.00015733
 C                  1.20144014   -0.66714480   -0.00011551
 C                  1.17206394    0.73408879    0.00033820
 C                 -1.17209580    0.73406562    0.00070139
 C                 -1.20144443   -0.66716855    0.00025676
 H                  2.13630821   -1.18764609   -0.00042932
 H                  2.08955009    1.28465139    0.00037377
 H                 -2.08959277    1.28461009    0.00102189
 H                 -2.13630227   -1.18768832    0.00023269
 N                 -0.00002239    1.39094496    0.00072783
 C                  0.00001999   -2.91721832   -0.00065171
 H                 -0.87354968   -3.27405553    0.50377195
 H                 -0.00013281   -3.27356112   -1.00957182
 H                  0.87375298   -3.27403826    0.50350123

 1 2 1.5 5 1.5 11 1.0
 2 3 1.5 6 1.0
 3 7 1.0 10 1.5
 4 5 1.5 8 1.0 10 1.5
 5 9 1.0
 6
 7
 8
 9
 10
 11 12 1.0 13 1.0 14 1.0
 12
 13
 14

