%chk=pyridine_opt.chk
# opt freq am1 pop=full geom=connectivity

pyridine opt+freq with AM1

0 1
 C                 -2.41242394   -1.06880059    0.18843059
 C                 -1.02266809   -1.06329488    0.06887079
 C                 -0.35887227    0.14428359   -0.18705266
 C                 -2.38847743    1.31300489   -0.20661946
 C                 -3.10339570    0.13486525    0.04881408
 H                 -2.93882050   -1.97967392    0.38366494
 H                 -0.46839081   -1.97275665    0.17161315
 H                  0.70707098    0.15389393   -0.27964103
 H                 -2.91378135    2.23891345   -0.31455072
 H                 -4.16958043    0.15852560    0.13593633
 N                 -1.04894879    1.29054814   -0.31727536

 1 2 1.5 5 1.5 6 1.0
 2 3 1.5 7 1.0
 3 8 1.0 11 1.5
 4 5 1.5 9 1.0 11 1.5
 5 10 1.0
 6
 7
 8
 9
 10
 11

