%chk=pyridine_sp.chk
# hf/3-21g* pop=full geom=connectivity

pyridine sp with HF3-21G

0 1
 C                  0.00000000   -1.38910700    0.00000000
 C                  1.20207200   -0.67942000    0.00000000
 C                  1.14997500    0.72678500    0.00000000
 C                 -1.14997500    0.72678500    0.00000000
 C                 -1.20207200   -0.67942000    0.00000000
 H                  0.00000000   -2.48854100    0.00000000
 H                  2.16833200   -1.19938300    0.00000000
 H                  2.07738900    1.32681400    0.00000000
 H                 -2.07738900    1.32681500    0.00000000
 H                 -2.16833200   -1.19938200    0.00000000
 N                  0.00000000    1.42856200    0.00000000

 1 2 1.5 5 1.5 6 1.0
 2 3 1.5 7 1.0
 3 8 1.0 11 1.5
 4 5 1.5 9 1.0 11 1.5
 5 10 1.0
 6
 7
 8
 9
 10
 11

