%chk=Napthal_opt_AM1.chk
# opt am1 geom=connectivity

Methyl_Napthalene Optimisation AM1 semi-emperical

0 1
 C                 -0.00527614   -0.39188541   -0.01335967
 C                 -0.94006649   -1.43602440   -0.00797765
 C                 -0.44259084    0.93958871   -0.00311394
 C                 -2.31168213   -1.14884746    0.00199676
 H                 -0.60644366   -2.45267589   -0.01191979
 C                  1.36634842   -0.68069921   -0.03006993
 C                  0.49145477    1.98381069    0.00108947
 C                 -1.81423952    1.22676817    0.00400267
 C                 -2.74878820    0.18256199    0.00652511
 H                 -3.02520275   -1.94620108    0.00593747
 C                  1.84630624   -2.14324868    0.01672264
 C                  2.29961512    0.36486987   -0.00219039
 C                  1.86264289    1.69635930    0.00525544
 H                  0.15771511    3.00043063    0.00240706
 H                 -2.14795262    2.24339004    0.00794526
 H                 -3.79606158    0.40184968    0.01212588
 H                  2.91592393   -2.16729628    0.03220515
 H                  1.49033712   -2.66328545   -0.84800144
 H                  1.46613487   -2.61535126    0.89847594
 H                  3.34690036    0.14607846    0.01277400
 H                  2.57630447    2.49353975    0.01476739

 1 2 1.5 3 1.5 6 1.5
 2 4 1.5 5 1.0
 3 8 1.5 7 1.5
 4 9 1.5 10 1.0
 5
 6 12 1.5 11 1.0
 7 13 1.5 14 1.0
 8 9 1.5 15 1.0
 9 16 1.0
 10
 11 19 1.0 18 1.0 17 1.0
 12 13 1.5 20 1.0
 13 21 1.0
 14
 15
 16
 17
 18
 19
 20
 21

