%chk=AlH3_pyramid_opt.chk
# hf/3-21g pop=full geom=connectivity

Title Card Required

0 1
 Al                 0.70396175   -0.32048151    0.00000000
 H                  2.16531577   -0.32048151   -0.51666667
 H                 -0.02671526    0.94508819   -0.51666667
 H                 -0.02671526   -1.58605121   -0.51666667

 1 2 1.0 3 1.0 4 1.0
 2
 3
 4

