%chk=AlH4_ion_opt.chk
# opt freq hf/3-21g pop=full geom=connectivity

optimisation

-1 1
 Al                 0.07008198    2.63033798    0.00000000
 H                  1.53143599    2.63033798   -0.51666667
 H                 -0.66059503    3.89590768   -0.51666667
 H                 -0.66059503    1.36476828   -0.51666667
 H                  0.07008198    2.63033798    1.55000000

 1 2 1.0 3 1.0 4 1.0 5 1.0
 2
 3
 4
 5

