%chk=AlH4_ion_sp.chk
# hf/3-21g pop=full geom=connectivity

sp

-1 1
 Al                 0.00000000    0.00000000    0.00000000
 H                  0.96066300    0.96066300    0.96066300
 H                 -0.96066300    0.96066300   -0.96066300
 H                  0.96066300   -0.96066300   -0.96066300
 H                 -0.96066300   -0.96066300    0.96066300

 1
 2
 3
 4
 5

