%chk=AlH3_opt.chk
# opt freq hf/3-21g pop=full geom=connectivity

optimisation

0 1
 Al                 1.03183060   -0.45162905    0.00000000
 H                  2.58183060   -0.45162905    0.00000000
 H                  0.25683060    0.89071033    0.00000000
 H                  0.25683060   -1.79396842    0.00000000

 1 2 1.0 3 1.0 4 1.0
 2
 3
 4

