%chk=Meth_napthalene_isomer_sp.chk
# hf/3-21g* pop=full geom=connectivity

sp

0 1
 C                  2.91741300    0.39815600    0.00012700
 C                  1.83686600    1.27394300    0.00006200
 C                  0.52410700    0.77950000   -0.00005000
 C                  0.30257400   -0.60937600   -0.00008300
 C                  1.39921200   -1.48075200   -0.00002900
 C                  2.69817000   -0.98109700    0.00006800
 H                 -0.39215700    2.76127000   -0.00019700
 H                  3.94447200    0.79117400    0.00024200
 H                  2.00660400    2.36098700    0.00010100
 C                 -0.61033300    1.68185100   -0.00010900
 C                 -1.07087800   -1.18125600   -0.00020600
 H                  1.22739900   -2.56748200   -0.00006300
 H                  3.55293700   -1.67315800    0.00008400
 C                 -2.19283700   -0.19518800    0.00001600
 C                 -1.87427100    1.22264800   -0.00005600
 H                 -2.72911600    1.91850100   -0.00005900
 C                 -3.46567700   -0.62199800    0.00024900
 H                 -4.31679300    0.06990100    0.00041400
 H                 -3.72408300   -1.68803800    0.00029900
 H                 -1.17766300   -1.84564200   -0.90459300
 H                 -1.17766900   -1.84609400    0.90384300

 1 2 1.5 6 1.5 8 1.0
 2 3 1.5 9 1.0
 3 4 1.5 10 1.0
 4 5 1.5 11 1.0
 5 6 1.5 12 1.0
 6 13 1.0
 7 10 1.0
 8
 9
 10 15 2.0
 11 14 1.0 20 1.0 21 1.0
 12
 13
 14 15 1.0 17 2.0
 15 16 1.0
 16
 17 18 1.0 19 1.0
 18
 19
 20
 21

