%chk=BH3_pyramid_opt.chk
# opt freq hf/3-21g pop=full geom=connectivity

Title Card Required

0 1
 B                  0.00000000    0.00000000    0.00000000
 H                 -0.71640300    0.71640300   -0.71640300
 H                  0.71640300   -0.71640300   -0.71640300
 H                 -0.71640300   -0.71640300    0.71640300

 1 2 1.0 3 1.0 4 1.0
 2
 3
 4

