%chk=PH3_AlCl3_adduct_opt.chk
# opt freq hf/3-21g pop=full geom=connectivity

Title Card Required

0 1
 Al                -0.29458575    0.07949501   -0.55482769
 Cl                -1.41458575    2.01939191   -0.55482769
 Cl                -1.41458575   -1.86040189   -0.55482769
 Cl                 1.94541425    0.07949501   -0.55482769
 P                 -0.06512735    0.35674552   -3.06920257
 H                  0.38485720   -0.91605214   -3.06920257
 H                  0.38488044    0.99313576   -1.96693198
 H                  0.38488044    0.99313576   -4.17147315

 1 2 1.0 3 1.0 4 1.0 5 1.0
 2
 3
 4
 5 6 1.0 7 1.0 8 1.0
 6
 7
 8

