%chk=PH3_only_adduct_sp.chk
# hf/3-21g pop=full geom=connectivity

Title Card Required

0 1
 P                 -2.21134700   -0.00922400   -0.00418600
 H                 -2.81587000    0.75232900    1.00564300
 H                 -2.80628300   -1.26903900    0.15126900
 H                 -2.81110300    0.48158200   -1.17231600

 1 2 1.0 3 1.0 4 1.0
 2
 3
 4

