%chk=PH3_AlCl3_adduct_sp.chk
# hf/3-21g pop=full geom=connectivity

Title Card Required

0 1
 Al                 0.33027300   -0.00142700   -0.00054500
 Cl                 0.74057700    1.29986800    1.71938000
 Cl                 0.72282100   -2.14490500    0.26644400
 Cl                 0.73130300    0.83592800   -1.99001200
 P                 -2.21134700    0.00922000    0.00419000
 H                 -2.81587000   -0.75210600   -1.00581100
 H                 -2.80628500    1.26907000   -0.15098100
 H                 -2.81110100   -0.48185000    1.17220900

 1 2 1.0 3 1.0 4 1.0
 2
 3
 4
 5 6 1.0 7 1.0 8 1.0
 6
 7
 8

