%chk=nf3_opt.chk
# opt freq hf/3-21g pop=full geom=connectivity

Title Card Required

0 1
 N                  0.00000000    0.00000000    0.33882400
 F                  0.00000000    1.20679600   -0.08784300
 F                 -1.04511600   -0.60339800   -0.08784300
 F                  1.04511600   -0.60339800   -0.08784300

 1 2 1.0 3 1.0 4 1.0
 2
 3
 4

