%chk=nf3H_ion_sp.chk
# hf/3-21g pop=full geom=connectivity

Title Card Required

1 1
 N                  0.00000000    0.00000000    0.33970800
 H                  0.00000000    0.00000000    1.36899700
 F                  0.00000000    1.28845100   -0.13877600
 F                  1.11583200   -0.64422600   -0.13877600
 F                 -1.11583200   -0.64422600   -0.13877600

 1 2 1.0
 2
 3
 4
 5

