%chk=meth_cyclobutadiene_isomer.chk
# opt freq hf/3-21g geom=connectivity

Optimisation

0 1
 C                  0.16939890    1.05464474    0.00000000
 C                  1.71264590    1.05464474    0.00000000
 C                  1.71258490    2.59783474    0.00000000
 C                  0.16935590    2.59783174   -0.00027000
 H                 -0.28359510    0.60153174   -0.90642000
 H                  2.16555390    0.60183174   -0.90661500
 H                  2.12656060    3.01167089   -0.89569178
 C                 -0.45866089    3.22561270   -1.25847744
 H                 -0.27779382    4.28021533   -1.25910873
 H                 -0.02129925    2.78820741   -2.13157046
 H                  2.12624716    3.01167088    0.89583658

 1 2 2.0 4 1.0 5 1.0
 2 3 1.0 6 1.0
 3 4 1.0 7 1.0 11 1.0
 4 8 2.0
 5
 6
 7
 8 9 1.0 10 1.0
 9
 10
 11

