%chk=26DMP_BCl3_adduct_sp.chk
# hf/3-21g pop=full geom=connectivity

Title Card Required

0 1
 C                 -1.26586400   -1.17932000    0.07866400
 C                 -2.62151600   -1.18368600   -0.17065300
 C                 -3.29911500   -0.00006500   -0.35691600
 C                 -2.62154800    1.18365100   -0.17076000
 C                 -1.26596000    1.17937700    0.07859200
 N                 -0.57363200    0.00000900    0.06210300
 H                 -4.34731300   -0.00008600   -0.57724800
 H                 -3.13342600   -2.12149300   -0.18800700
 H                 -3.13354500    2.12141100   -0.18817800
 C                 -0.63653500   -2.50000300    0.47859200
 H                 -1.38799200   -3.05923200    1.02090600
 H                 -0.32762300   -3.06932100   -0.38361700
 H                  0.21474700   -2.35632600    1.12198900
 C                 -0.63665200    2.50004200    0.47868800
 H                  0.21459400    2.35626100    1.12212100
 H                 -0.32772800    3.06951700   -0.38340100
 H                 -1.38814200    3.05915600    1.02107800
 B                  1.04627600    0.00004200   -0.04220500
 Cl                 1.69290400   -1.49827800   -1.02408200
 Cl                 1.70137500   -0.00034500    1.73661400
 Cl                 1.69299200    1.49861500   -1.02350800

 1 2 2.0 6 1.5 10 1.0
 2 3 2.0 8 1.0
 3 4 2.0 7 1.0
 4 5 2.0 9 1.0
 5 6 1.5 14 1.0
 6 18 1.0
 7
 8
 9
 10 11 1.0 12 1.0 13 1.0
 11
 12
 13
 14 15 1.0 16 1.0 17 1.0
 15
 16
 17
 18 19 1.0 20 1.0 21 1.0
 19
 20
 21

