%chk=BF3_only_adduct_sp.chk
# hf/3-21g pop=full geom=connectivity

Title Card Required

0 1
 B                 -0.20756500   -0.00000700    0.00001600
 F                 -0.54665700   -0.40481800    1.27152000
 F                 -0.54718700   -0.89873100   -0.98615700
 F                 -0.54711700    1.30348600   -0.28505300

 1 2 1.0 3 1.0 4 1.0
 2
 3
 4

