%chk=NH3_only_adduct_sp.chk
# hf/3-21g pop=full geom=connectivity

Title Card Required

0 1
 N                  1.48320800    0.00004600   -0.00027800
 H                  1.80795600   -0.54887100   -0.78543600
 H                  1.80819500   -0.40534900    0.86763700
 H                  1.80786000    0.95449500   -0.08312500

 1 2 1.0 3 1.0 4 1.0
 2
 3
 4

