%chk=NH3_BF3_adduct_sp.chk
# hf/3-21g pop=full geom=connectivity

Title Card Required

0 1
 B                  0.20756500    0.00000700    0.00001600
 F                  0.54665700    0.39955700    1.27318300
 F                  0.54718600    0.90280100   -0.98243300
 F                  0.54711700   -1.30229600   -0.29044100
 N                 -1.48320800   -0.00004600   -0.00027800
 H                 -1.80795700    0.55211300   -0.78315900
 H                 -1.80819500    0.40175700    0.86930600
 H                 -1.80786000   -0.95414400   -0.08707000

 1 2 1.0 3 1.0 4 1.0
 2
 3
 4
 5 6 1.0 7 1.0 8 1.0
 6
 7
 8

