%chk=NH3_BF3_adduct_opt.chk
# opt freq hf/3-21g pop=full geom=connectivity

Title Card Required

0 1
 B                  0.20225491   -0.00008510    0.00008133
 F                  0.54235091    1.32495090   -0.15103267
 F                  0.54127391   -0.79445910   -1.07141567
 F                  0.53855091   -0.53185810    1.22408233
 N                 -1.47774391    0.00121610   -0.00142433
 H                 -1.80208391   -0.66089790   -0.69383533
 H                 -1.80067891    0.93222910   -0.22941033
 H                 -1.80299291   -0.26701090    0.91798667

 1 2 1.0 3 1.0 4 1.0 5 1.0
 2
 3
 4
 5 6 1.0 7 1.0 8 1.0
 6
 7
 8

