%chk=BF3_sp.chk
# hf/3-21g pop=full geom=connectivity

BF3 sp

0 1
 B                  0.00000000    0.00000000    0.00000000
 F                  0.00000000    1.32847600    0.00000000
 F                 -1.15049400   -0.66423800    0.00000000
 F                  1.15049400   -0.66423800    0.00000000

 1 2 1.0 3 1.0 4 1.0
 2
 3
 4

