%chk=26DMP_opt.chk
# opt freq hf/3-21g pop=full geom=connectivity

2,6 DMP opt

0 1
 C                 -1.15592800   -0.26028500   -0.00001600
 C                 -1.19356500    1.12429900   -0.00000800
 C                  0.00000000    1.82162200    0.00000000
 C                  1.19356500    1.12429900    0.00000800
 C                  1.15592800   -0.26028500    0.00001600
 N                  0.00000000   -0.92075800    0.00000000
 H                  0.00000000    2.89372800    0.00000000
 H                 -2.13240700    1.63816600   -0.00006300
 H                  2.13240700    1.63816600    0.00006200
 C                  2.41347600   -1.09453100   -0.00000700
 H                  2.42774600   -1.73362800   -0.87497100
 H                  3.30160300   -0.47649700    0.00021600
 H                  2.42755700   -1.73402400    0.87466500
 C                 -2.41347600   -1.09453100    0.00000700
 H                 -2.42755700   -1.73402300   -0.87466500
 H                 -2.42774600   -1.73362800    0.87497000
 H                 -3.30160300   -0.47649700   -0.00021600

 1 2 2.0 6 1.5 14 1.0
 2 3 2.0 8 1.0
 3 4 2.0 7 1.0
 4 5 2.0 9 1.0
 5 6 1.5 10 1.0
 6
 7
 8
 9
 10 11 1.0 12 1.0 13 1.0
 11
 12
 13
 14 15 1.0 16 1.0 17 1.0
 15
 16
 17

