%chk=meth_cyclooctatetraene_isomer_opt.chk
# opt freq am1 pop=full geom=connectivity

Title Card Required

0 1
 C                 -1.30342300   -1.33638800    0.50609400
 C                 -1.95590600   -0.17632200    0.64463200
 C                 -1.80133300    0.99530900   -0.19893000
 C                 -0.32111900   -1.64622100   -0.51768000
 C                 -0.66051600    1.65051300   -0.44375500
 C                  0.81766800   -0.98619100   -0.75458300
 C                  0.64977700    1.33985400    0.09663700
 C                  1.31400800    0.17898900   -0.02833300
 H                 -1.52626100   -2.17730200    1.18816000
 H                 -2.71551000   -0.06495700    1.43999100
 H                 -2.74763400    1.36254400   -0.63734400
 H                 -0.56834200   -2.53997300   -1.12053100
 H                 -0.67723800    2.55255000   -1.08382900
 H                  1.50082100   -1.34102100   -1.54824400
 C                  2.67745800    0.00740800    0.54047900
 H                  3.40975300   -0.21152200   -0.27637600
 H                  3.01482100    0.92415800    1.08253200
 H                  0.56773105    1.50655314    1.15038263
 H                  1.30479801    2.08489448   -0.30431456

 1 2 2.0 4 1.0 9 1.0
 2 3 1.0 10 1.0
 3 5 2.0 11 1.0
 4 6 2.0 12 1.0
 5 7 1.0 13 1.0
 6 8 1.0 14 1.0
 7 8 1.0 18 1.0 19 1.0
 8 15 2.0
 9
 10
 11
 12
 13
 14
 15 16 1.0 17 1.0
 16
 17
 18
 19

