%chk=26DMP_sp.chk
# hf/3-21g pop=full geom=connectivity

2,6 DMP sp

0 1
 C                  0.00001900   -1.15592800    0.26028500
 C                  0.00001100   -1.19356500   -1.12429900
 C                  0.00000000    0.00000000   -1.82162200
 C                 -0.00001100    1.19356500   -1.12429900
 C                 -0.00001900    1.15592800    0.26028500
 N                  0.00000000    0.00000000    0.92075800
 H                  0.00000000    0.00000000   -2.89372800
 H                  0.00006900   -2.13240700   -1.63816600
 H                 -0.00006900    2.13240700   -1.63816600
 C                  0.00000000    2.41347600    1.09453100
 H                  0.87496400    2.42774900    1.73362800
 H                 -0.00022600    3.30160300    0.47649700
 H                 -0.87467200    2.42755500    1.73402400
 C                  0.00000000   -2.41347600    1.09453100
 H                  0.87467200   -2.42755500    1.73402400
 H                 -0.87496400   -2.42774900    1.73362800
 H                  0.00022600   -3.30160300    0.47649700

 1 2 2.0 6 1.5 14 1.0
 2 3 2.0 8 1.0
 3 4 2.0 7 1.0
 4 5 2.0 9 1.0
 5 6 1.5 10 1.0
 6
 7
 8
 9
 10 11 1.0 12 1.0 13 1.0
 11
 12
 13
 14 15 1.0 16 1.0 17 1.0
 15
 16
 17

