%chk=26DMP_opt.chk
# opt freq hf/3-21g pop=full geom=connectivity

Title Card Required

0 1
 C                 -3.10093131    0.36674098    0.01432451
 C                 -1.70242300    0.38858314   -0.07520920
 C                 -1.03826840    1.61515765   -0.12065158
 C                 -1.79038553    2.78985718   -0.07535140
 C                 -3.18674408    2.70932952    0.01418579
 N                 -3.79892400    1.51404088    0.05622511
 H                  0.02882917    1.65424313   -0.18902607
 H                 -1.14910161   -0.52663977   -0.10841319
 H                 -1.30550933    3.74310699   -0.10866605
 C                 -4.02531995    4.00000167    0.06474223
 H                 -4.15512045    4.30134058    1.08319534
 H                 -3.52110206    4.77430348   -0.47481413
 H                 -4.98238423    3.82112663   -0.37902759
 C                 -3.84282792   -0.98182039    0.06503600
 H                 -4.74599793   -0.87107979    0.62799291
 H                 -4.07906692   -1.29657034   -0.92996330
 H                 -3.21889251   -1.71479847    0.53231301

 1 2 1.5 6 1.5 14 1.0
 2 3 1.5 8 1.0
 3 4 1.5 7 1.0
 4 5 1.5 9 1.0
 5 6 1.5 10 1.0
 6
 7
 8
 9
 10 11 1.0 12 1.0 13 1.0
 11
 12
 13
 14 15 1.0 16 1.0 17 1.0
 15
 16
 17

