%chk=toluene_sp.chk
# hf/3-21g* pop=full geom=connectivity

Title Card Required

0 1
 C                 -1.89059300   -0.00046700    0.00348400
 C                 -1.19063800   -1.20712100    0.00078200
 C                  0.20310500   -1.20766800   -0.00433800
 C                  0.91077100    0.00058000   -0.00622300
 C                  0.20232500    1.20820100   -0.00433500
 C                 -1.19154400    1.20659100    0.00077700
 H                 -2.99004300   -0.00090800    0.00697200
 H                 -1.73882100   -2.16061800    0.00212800
 H                  0.75221900   -2.16087500   -0.00762200
 H                  0.75041900    2.16200900   -0.00759500
 H                 -1.74033200    2.15974300    0.00212700
 C                  2.39149900    0.00018500    0.00392400
 H                  2.76547500   -0.02495700    1.05878800
 H                  2.79511400   -0.89460500   -0.53088700
 H                  2.79642500    0.91840900   -0.48833200

 1 2 1.5 6 1.5 7 1.0
 2 3 1.5 8 1.0
 3 4 1.5 9 1.0
 4 5 1.5 12 1.0
 5 6 1.5 10 1.0
 6 11 1.0
 7
 8
 9
 10
 11
 12 13 1.0 14 1.0 15 1.0
 13
 14
 15

