%chk=AlH3_only_adduct_sp.chk
# hf/3-21g pop=full geom=connectivity

Title Card Required

0 1
 Al                -1.47998300    0.00003100   -0.00006600
 H                 -1.66582600   -1.28071300   -0.95619300
 H                 -1.66774800   -0.18835600    1.58679200
 H                 -1.66805300    1.46830900   -0.63058900

 1 2 1.0 3 1.0 4 1.0
 2
 3
 4

