%chk=PH3_only_adduct_sp.chk
# hf/3-21g pop=full geom=connectivity

Title Card Required

0 1
 P                  1.23732500    0.00018900   -0.00000900
 H                  1.89475800    0.14457600   -1.23777800
 H                  1.89189500   -1.14578600    0.49338500
 H                  1.89488900    0.99873900    0.74537900

 1 2 1.0 3 1.0 4 1.0
 2
 3
 4

