%chk=PH3_AlH3_adduct_sp.chk
# hf/3-21g pop=full geom=connectivity

Title Card Required

0 1
 P                  1.23732500    0.00018900   -0.00000900
 H                  1.89475800    0.14370400   -1.23787900
 H                  1.89189500   -1.14543800    0.49419200
 H                  1.89488900    0.99926400    0.74467600
 Al                -1.47998300    0.00003100   -0.00006600
 H                 -1.66582600   -1.28138600   -0.95529000
 H                 -1.66774800   -0.18723800    1.58692500
 H                 -1.66805300    1.46786500   -0.63162300

 1 2 1.0 3 1.0 4 1.0
 2
 3
 4
 5 6 1.0 7 1.0 8 1.0
 6
 7
 8

