%chk=PH3_AlH3_adduct_opt.chk
# opt freq hf/3-21g pop=full geom=connectivity

Title Card Required

0 1
 P                 -1.24484805    1.26898266   -0.00744826
 H                 -0.79486350   -0.00381501   -0.00744826
 H                 -0.79484027    1.90537290    1.09482233
 H                 -0.79484027    1.90537290   -1.10971885
 Al                -2.72905797   -0.25384797    1.68857880
 H                 -1.17905797   -0.25384797    1.68857880
 H                 -3.50405797    1.08849140    1.68857880
 H                 -3.50405797   -1.59618735    1.68857880

 1 2 1.0 3 1.0 4 1.0 5 1.0
 2
 3
 4
 5 6 1.0 7 1.0 8 1.0
 6
 7
 8

