%chk=methToluene.chk
# opt freq am1 pop=full geom=connectivity

Methyl Napthalene opt+Freq

0 1
 C                 -2.68230800   -1.04482900   -0.00000100
 C                 -1.40494500   -1.50547600   -0.00000100
 C                 -0.30998600   -0.60475400   -0.00000200
 C                 -0.56795200    0.77823700   -0.00000100
 C                 -1.91084500    1.23025000   -0.00000100
 C                 -2.94023800    0.34473100    0.00000500
 H                  1.21837100   -2.11503800   -0.00000600
 H                 -3.50460600   -1.73251200    0.00000700
 H                 -1.20566200   -2.55970500    0.00000600
 C                  1.03617700   -1.05705400   -0.00000700
 C                  0.53331100    1.67395600    0.00000300
 H                 -2.09971800    2.28649800    0.00000500
 H                 -3.95408100    0.69251200    0.00000600
 C                  1.80562600    1.20950600   -0.00001000
 C                  2.07696100   -0.18534900   -0.00000800
 H                  0.33950300    2.72937900    0.00000900
 H                  2.62991300    1.89663500    0.00000000
 C                  3.51786200   -0.65422400    0.00001000
 H                  4.03898200   -0.28598600   -0.87790700
 H                  4.03883100   -0.28640000    0.87819300
 H                  3.57648200   -1.73534700   -0.00024100

 1 2 2.0 6 1.5 8 1.0
 2 3 1.5 9 1.0
 3 4 1.5 10 1.5
 4 5 1.5 11 1.5
 5 6 2.0 12 1.0
 6 13 1.0
 7 10 1.0
 8
 9
 10 15 2.0
 11 14 2.0 16 1.0
 12
 13
 14 15 1.5 17 1.0
 15 18 1.0
 16
 17
 18 19 1.0 20 1.0 21 1.0
 19
 20
 21

