%chk=Meth_napthalene_isomer_optfreq.chk
# opt freq am1 pop=full geom=connectivity

Optimisation

0 1
 C                  2.88406100    0.40747100   -0.19185200
 C                  1.80412700    1.26336500   -0.07806100
 C                  0.51921400    0.76442300    0.08562400
 C                  0.31884400   -0.61473100    0.14343600
 C                  1.40337700   -1.46390300    0.02513700
 C                  2.68274700   -0.95963200   -0.14373100
 H                 -0.44265500    2.71773200    0.21659400
 H                  3.87144700    0.80393700   -0.32073500
 H                  1.95450400    2.32492800   -0.12307600
 C                 -0.64176000    1.66482600    0.15671800
 C                 -1.07796300   -1.15620900    0.41140700
 H                  1.25115400   -2.52548800    0.06679400
 H                  3.51361700   -1.63065400   -0.23565900
 C                 -2.18957700   -0.21785400   -0.03034000
 C                 -1.88792100    1.21822400    0.08398600
 H                 -2.71503000    1.90161300    0.06799000
 C                 -3.36793900   -0.65526500   -0.44071600
 H                 -4.16205100    0.02209500   -0.69305000
 H                 -3.58164600   -1.70232000   -0.54167200
 H                 -1.19901500   -2.12549000   -0.05516300
 H                 -1.17357500   -1.29065400    1.48832900

 1 2 2.0 6 2.0 8 1.0
 2 3 1.5 9 1.0
 3 4 1.5 10 1.0
 4 5 2.0 11 1.0
 5 6 2.0 12 1.0
 6 13 1.0
 7 10 1.0
 8
 9
 10 15 2.0
 11 14 1.0 20 1.0 21 1.0
 12
 13
 14 15 1.0 17 2.0
 15 16 1.0
 16
 17 18 1.0 19 1.0
 18
 19
 20
 21

