%chk=BH3_opt.chk
# opt freq hf/3-21g pop=full geom=connectivity

Title Card Required

0 1
 B                  0.62825137    0.10923750    0.00000000
 H                  1.80825137    0.10923750    0.00000000
 H                  0.03825137    1.13114747    0.00000000
 H                  0.03825137   -0.91267248    0.00000000

 1 2 1.0 3 1.0 4 1.0
 2
 3
 4

