%chk=AlH3_only_adduct_sp.chk
# hf/3-21g pop=full geom=connectivity

Title Card Required

0 1
 Al                 0.00000000    0.00000000    0.79324200
 H                 -1.59410700    0.00000000    1.08368400
 H                  0.79705300   -1.38053700    1.08368400
 H                  0.79705300    1.38053700    1.08368400

 1 2 1.0 3 1.0 4 1.0
 2
 3
 4

