%chk=NH3_AlH3_opt.chk
# opt freq hf/3-21g pop=full geom=connectivity

Title Card Required

0 1
 N                 -2.73208635    0.74006811   -0.26052543
 H                 -1.89509101    0.34079009    0.11366151
 H                 -3.13296954    1.36358020    0.41068642
 H                 -2.51599504    1.24439355   -1.09656395
 Al                -4.00388309   -0.68062289   -0.66877794
 H                 -4.33882462   -1.46232731    0.62708176
 H                 -5.30122586   -0.06174195   -1.24876769
 H                 -3.38251414   -1.64706662   -1.70915631

 1 2 1.0 3 1.0 4 1.0 5 1.0
 2
 3
 4
 5 6 1.0 7 1.0 8 1.0
 6
 7
 8

