%chk=NH3_only_adduct_sp.chk
# hf/3-21g pop=full geom=connectivity

Title Card Required

0 1
 N                  0.00000000    0.00000000   -1.25450100
 H                 -0.47625400    0.82489600   -1.59389900
 H                 -0.47625400   -0.82489600   -1.59389900
 H                  0.95250800    0.00000000   -1.59389900

 1 2 1.0 3 1.0 4 1.0
 2
 3
 4

