%chk=BCl3_sp.chk
# hf/3-21g pop=full geom=connectivity

BCl3 sp

0 1
 B                  0.00000000    0.00000000    0.00000000
 Cl                 0.00000000    1.77133600    0.00000000
 Cl                -1.53402200   -0.88566800    0.00000000
 Cl                 1.53402200   -0.88566800    0.00000000

 1 2 1.0 3 1.0 4 1.0
 2
 3
 4

