%chk=BCl3_only_adduct_opt.chk
# hf/3-21g pop=full geom=connectivity

Title Card Required

0 1
 B                  0.00000000    0.00000000   -0.19805700
 Cl                 0.00000000    1.81223000   -0.67095700
 Cl                 1.56943700   -0.90611500   -0.67095700
 Cl                -1.56943700   -0.90611500   -0.67095700

 1 2 1.0 3 1.0 4 1.0
 2
 3
 4

