%chk=PH3_BCl3_adduct_opt.chk
# opt freq hf/3-21g pop=full geom=connectivity

Title Card Required

0 1
 B                 -2.08889672    2.51374260    1.09245848
 P                 -2.18981034    2.83260980    2.99325835
 Cl                -3.33115132    1.20046786    0.61390547
 Cl                -2.47053113    4.09711981    0.17367027
 Cl                -0.36723131    1.93468589    0.64809204
 H                 -1.29299552    3.78069584    3.33873779
 H                 -3.43272387    3.25064540    3.31405764
 H                 -1.91429887    1.68952999    3.65655465

 1 4 1.0 3 1.0 5 1.0 2 1.0
 2 6 1.0 7 1.0 8 1.0
 3
 4
 5
 6
 7
 8

