%chk=meth_thiophene_isomer_opt.chk
# opt freq am1 pop=full geom=connectivity

methyl_thiophene_isomer opt freq with AM1

0 1
 C                  1.04761200    1.11875300    0.00000600
 C                 -0.32198000    1.24571100   -0.00001400
 C                 -0.97328800   -0.03540100   -0.00003500
 C                 -0.05092100   -1.06240600   -0.00001900
 S                  1.51715800   -0.48666700    0.00000900
 H                  1.76094300    1.94072200    0.00003900
 H                 -0.87236900    2.18825100   -0.00004300
 C                 -2.43414900   -0.19003700    0.00002000
 H                 -0.20072137   -1.66527289   -0.87123158
 H                 -0.20075226   -1.66527349    0.87118785
 H                 -2.87616570   -1.09656867    0.35740155
 H                 -3.05618764    0.60386149   -0.35732173

 1 2 2.0 5 1.0 6 1.0
 2 3 1.0 7 1.0
 3 4 1.0 8 2.0
 4 5 1.0 9 1.0 10 1.0
 5
 6
 7
 8 11 1.0 12 1.0
 9
 10
 11
 12

