%chk=35DMP_BCl3_adduct_opt.chk
# opt freq hf/3-21g pop=full geom=connectivity

Title Card Required

0 1
 C                 -0.83296100    1.20425600   -0.00128900
 C                 -2.21543100    1.21012300   -0.00140700
 C                 -2.85930000   -0.01017700   -0.00133100
 C                 -2.14179300   -1.20425900    0.00131600
 C                 -0.77535500   -1.12288400    0.00146400
 N                 -0.13732500    0.06611500    0.00015300
 H                 -3.93161900   -0.04326500   -0.00146800
 H                 -0.26988000    2.10899800   -0.00256400
 H                 -0.15528600   -1.99090300    0.00281800
 C                 -2.96248000    2.52793100    0.00260500
 H                 -2.76964400    3.07315500    0.92173600
 H                 -2.65374200    3.14741000   -0.83509000
 H                 -4.03141800    2.36081200   -0.07592600
 C                 -2.84703600   -2.54358500    0.00131000
 H                 -3.47424100   -2.64144300    0.88070600
 H                 -3.47080300   -2.64437700   -0.87876400
 H                 -2.13369500   -3.35692900    0.00438500
 B                  1.46889600    0.02740000    0.00002800
 Cl                 1.98466500   -0.91775500   -1.55855900
 Cl                 2.16624700    1.77847600    0.00038800
 Cl                 1.98516200   -0.91846900    1.55792100

 1 2 2.0 6 1.5 8 1.0
 2 3 2.0 10 1.0
 3 4 1.5 7 1.0
 4 5 2.0 14 1.0
 5 6 1.5 9 1.0
 6 18 1.0
 7
 8
 9
 10 11 1.0 12 1.0 13 1.0
 11
 12
 13
 14 15 1.0 16 1.0 17 1.0
 15
 16
 17
 18 19 1.0 20 1.0 21 1.0
 19
 20
 21

