%chk=35DMP_BCl3_adduct_sp.chk
# hf/3-21g pop=full geom=connectivity

Title Card Required

0 1
 C                 -0.83436000    1.20750100    0.00005300
 C                 -2.21290700    1.21059100   -0.00000200
 C                 -2.85697000   -0.01394400   -0.00012300
 C                 -2.14052100   -1.20433200   -0.00011800
 C                 -0.77110500   -1.11976100   -0.00004100
 N                 -0.13594100    0.06653300    0.00004900
 H                 -3.92989900   -0.04611100   -0.00023400
 H                 -0.27056400    2.11102900    0.00012800
 H                 -0.15117000   -1.98807100   -0.00009100
 C                 -2.98625400    2.51252100    0.00007500
 H                 -3.61578100    2.58056100    0.87983900
 H                 -2.31577300    3.36175900   -0.00021600
 H                 -3.61630700    2.58037700   -0.87932100
 C                 -2.84083700   -2.54643800    0.00014500
 H                 -3.46210100   -2.65004400    0.88234300
 H                 -3.46956900   -2.64662500   -0.87711100
 H                 -2.12451500   -3.35717600   -0.00448600
 B                  1.47035700    0.03038800    0.00000200
 Cl                 1.98779500   -0.91504200   -1.55840000
 Cl                 2.16624300    1.78147900    0.00045300
 Cl                 1.98791600   -0.91586000    1.55788000

 1 2 2.0 6 1.5 8 1.0
 2 3 2.0 10 1.0
 3 4 1.5 7 1.0
 4 5 2.0 14 1.0
 5 6 1.5 9 1.0
 6 18 1.0
 7
 8
 9
 10 11 1.0 12 1.0 13 1.0
 11
 12
 13
 14 15 1.0 16 1.0 17 1.0
 15
 16
 17
 18 19 1.0 20 1.0 21 1.0
 19
 20
 21

