%chk=BCl3_only_adduct_sp.chk
# hf/3-21g pop=full geom=connectivity

Title Card Required

0 1
 B                 -1.47035700    0.03038800   -0.00000200
 Cl                -1.98779500   -0.91504200    1.55840000
 Cl                -2.16624300    1.78147900   -0.00045300
 Cl                -1.98791600   -0.91586000   -1.55788000

 1 2 1.0 3 1.0 4 1.0
 2
 3
 4

