%chk=BH3_ion_planr_sp.chk
# opt freq hf/3-21g pop=full geom=connectivity

Title Card Required

-1 2
 B                 -0.55207648    0.67754347    0.00000000
 H                  0.62792352    0.67754347    0.00000000
 H                 -1.14207649    1.69945345    0.00000000
 H                 -1.14207649   -0.34436650    0.00000000

 1 2 1.0 3 1.0 4 1.0
 2
 3
 4

