%chk=benzene_optfreq.chk
# opt freq hf/3-21g geom=connectivity

C6H6_optfreq

0 1
 C                 -0.30577454    1.61452513    0.00000000
 C                  1.08938546    1.61452513    0.00000000
 C                  1.78692346    2.82227613    0.00000000
 C                  1.08926946    4.03078513   -0.00119900
 C                 -0.30555554    4.03070713   -0.00167800
 C                 -1.00315654    2.82250113   -0.00068200
 H                 -0.85553354    0.66220813    0.00045000
 H                  1.63889346    0.66201213    0.00131500
 H                  2.88660346    2.82235613    0.00063400
 H                  1.63946946    4.98292813   -0.00125800
 H                 -0.85567754    4.98298813   -0.00263100
 H                 -2.10276054    2.82268413   -0.00086200

 1 2 1.5 6 1.5 7 1.0
 2 3 1.5 8 1.0
 3 4 1.5 9 1.0
 4 5 1.5 10 1.0
 5 6 1.5 11 1.0
 6 12 1.0
 7
 8
 9
 10
 11
 12

