%chk=PH3_sp.chk
# hf/3-21g pop=full geom=connectivity

PH3 sp

0 1
 P                  0.00000000    0.00000000    0.12151900
 H                  0.00000000    1.22154700   -0.60759500
 H                 -1.05789100   -0.61077400   -0.60759500
 H                  1.05789100   -0.61077400   -0.60759500

 1 2 1.0 3 1.0 4 1.0
 2
 3
 4

