%chk=PH3_opt.chk
# opt freq hf/3-21g pop=full geom=connectivity

PH3 opt

0 1
 P                  0.30054644    0.59562838    0.00000000
 H                  0.75053100   -0.67716929    0.00000000
 H                  0.75055423    1.23201862    1.10227059
 H                  0.75055423    1.23201862   -1.10227059

 1 2 1.0 3 1.0 4 1.0
 2
 3
 4

