%chk=PH4_ion_sp.chk
# hf/3-21g pop=full geom=connectivity

PH4+ sp

1 1
 P                  0.00000000    0.00000000    0.00000000
 H                  0.80360300    0.80360300    0.80360300
 H                 -0.80360300    0.80360300   -0.80360300
 H                  0.80360300   -0.80360300   -0.80360300
 H                 -0.80360300   -0.80360300    0.80360300

 1 2 1.0 3 1.0 4 1.0 5 1.0
 2
 3
 4
 5

