%chk=PH4_ion_opt.chk
# opt freq hf/3-21g pop=full geom=connectivity

PH4+ opt

1 1
 P                  0.00000000    0.00000000    0.12151900
 H                 -0.00000000    1.27278770   -0.32849373
 H                 -1.10227038   -0.63640060   -0.32847463
 H                  1.10227038   -0.63640060   -0.32847463
 H                  0.00000000    0.00001351    1.47151900

 1 2 1.0 3 1.0 4 1.0 5 1.0
 2
 3
 4
 5

