%chk=methToluene.chk
# opt freq hf/3-21g pop=full geom=connectivity

Methyl Toluene opt+Freq

0 1
 C                 -0.08663520   -2.62816603    0.00125314
 C                  1.31476210   -2.62830811   -0.00149304
 C                  2.01558563   -1.41473151   -0.00192933
 C                  1.31501186   -0.20101284    0.00038097
 C                 -0.08638544   -0.20087076    0.00312982
 C                 -0.78720897   -1.41444736    0.00356674
 H                 -0.62172952   -3.55475869    0.00158434
 H                  1.84966572   -3.55500925   -0.00325686
 H                  3.08558357   -1.41483999   -0.00402558
 H                 -0.62128906    0.72583038    0.00489566
 H                 -1.85720690   -1.41433888    0.00566592
 C                  2.08514760    1.13258781   -0.00010096
 H                  2.26549107    1.44067392    1.00859086
 H                  3.01908087    1.00493885   -0.50643522
 H                  1.50596518    1.87874334   -0.50279337

 1 2 1.5 6 1.5 7 1.0
 2 3 1.5 8 1.0
 3 4 1.5 9 1.0
 4 5 1.5 12 1.0
 5 6 1.5 10 1.0
 6 11 1.0
 7
 8
 9
 10
 11
 12 13 1.0 14 1.0 15 1.0
 13
 14
 15

