%chk=cycloheptatrienyl_anion_opt.chk
# opt freq am1 pop=full geom=connectivity

Optimisation

-1 1
 C                  0.53524900    1.25659600    0.21358500
 C                 -0.79003700    1.54905000    0.01126600
 C                 -1.90662300    0.74557100   -0.19432700
 C                  1.15724100   -0.07326500    0.04872000
 C                 -1.91740400   -0.68941200   -0.01331000
 C                  0.55485300   -1.25680700   -0.02103100
 C                 -0.90606800   -1.55386600    0.11303200
 H                  1.21673500    2.07283000    0.38352900
 H                 -1.01102200    2.61141500    0.02406900
 H                 -2.85952600    1.22607100   -0.32937700
 H                 -2.90975700   -1.11673000    0.07350300
 H                  1.16760100   -2.12347000   -0.22120800
 H                 -1.13905900   -2.58692000    0.31905700
 C                  2.67008000   -0.00576800   -0.11984100
 H                  2.91912700    0.59153200   -0.99453900
 H                  3.11904200    0.48301200    0.74329800
 H                  3.11311100   -0.99033600   -0.22689500

 1 2 2.0 4 1.0 8 1.0
 2 3 1.5 9 1.0
 3 5 1.5 10 1.0
 4 6 2.0 14 1.0
 5 7 2.0 11 1.0
 6 7 1.0 12 1.0
 7 13 1.0
 8
 9
 10
 11
 12
 13
 14 15 1.0 16 1.0 17 1.0
 15
 16
 17

