%chk=cycloheptatrienyl_anion_isomer_opt.chk
# opt freq am1 pop=full geom=connectivity

Optimisation

-1 1
 C                 -0.51900800    1.34915800    0.00333400
 C                  0.84966900    1.49123900    0.11285700
 C                  1.89715000    0.58069600    0.03558900
 C                 -1.26939400    0.12186100    0.03110200
 C                  1.74290200   -0.79085800   -0.32372200
 C                 -0.54099200   -1.07887200    0.65014800
 C                  0.63607100   -1.53456400   -0.18018000
 H                 -1.10117100    2.25276900   -0.07077700
 H                  1.17301600    2.51972300    0.21822600
 H                  2.89876400    0.97514400    0.06864300
 H                  2.59570700   -1.25562200   -0.80274700
 H                  0.57683800   -2.50974800   -0.63224700
 C                 -2.55190600   -0.00418600   -0.35424900
 H                 -3.10185700   -0.91670300   -0.20425400
 H                 -3.07794600    0.80039600   -0.83887000
 H                 -0.18624500   -0.77691900    1.63316300
 H                 -1.24404900   -1.89588200    0.77959000

 1 2 2.0 4 1.5 8 1.0
 2 3 1.5 9 1.0
 3 5 1.5 10 1.0
 4 6 1.0 13 2.0
 5 7 2.0 11 1.0
 6 7 1.0 16 1.0 17 1.0
 7 12 1.0
 8
 9
 10
 11
 12
 13 14 1.0 15 1.0
 14
 15
 16
 17

