%chk=cycloheptatrienyl_cation_isomer_sp.chk
# hf/3-21g* pop=full geom=connectivity

Optimisation

1 1
 C                 -0.52388500    1.33408400    0.10953100
 C                  0.83606900    1.54433600    0.15238800
 C                  1.85208400    0.61854200   -0.06886800
 C                 -1.22395200    0.08346000    0.04816800
 C                  1.73632700   -0.76252900   -0.33331900
 C                 -0.59018900   -1.15566500    0.58183200
 C                  0.66098100   -1.55651000   -0.08921900
 H                 -1.16767500    2.24367500    0.09290100
 H                  1.16627100    2.59606700    0.30380100
 H                  2.88918600    1.02716300   -0.09925800
 H                  2.64627500   -1.24224900   -0.75551600
 H                  0.73304500   -2.63454300   -0.34609600
 C                 -2.49409500    0.05235100   -0.42457200
 H                 -3.03293300    0.96244000   -0.73515000
 H                 -3.05767200   -0.88921300   -0.52910500
 H                 -0.36607800   -1.00593200    1.68241400
 H                 -1.33045600   -2.00582300    0.53036300

 1 2 2.0 4 1.5 8 1.0
 2 3 1.5 9 1.0
 3 5 1.5 10 1.0
 4 6 1.0 13 2.0
 5 7 2.0 11 1.0
 6 7 1.0 16 1.0 17 1.0
 7 12 1.0
 8
 9
 10
 11
 12
 13 14 1.0 15 1.0
 14
 15
 16
 17

