%chk=cycloheptatrienyl_cation_sp.chk
# hf/3-21g* pop=full geom=connectivity

Optimisation

1 1
 C                 -0.53767400   -1.24274500   -0.00000900
 C                  0.81038900   -1.55690600    0.00002400
 C                  1.91135600   -0.70160100   -0.00015900
 C                 -1.16037700    0.01232600   -0.00018800
 C                  1.92000400    0.68294300   -0.00005500
 C                 -0.52325100    1.25792600   -0.00009400
 C                  0.83057000    1.55219000    0.00004400
 H                 -1.23223800   -2.11608100    0.00012200
 H                  1.05130800   -2.64610200    0.00016900
 H                  2.90928000   -1.19830700   -0.00035900
 H                  2.92426200    1.16674000   -0.00003800
 H                 -1.20056800    2.14456000   -0.00010000
 H                  1.08613900    2.63817400    0.00019200
 C                 -2.65059000    0.00353200    0.00011200
 H                 -3.03076300   -0.54635500   -0.90006600
 H                 -3.02932700   -0.52407700    0.91424700
 H                 -3.08065500    1.03545400   -0.01221700

 1 2 2.0 4 1.5 8 1.0
 2 3 1.5 9 1.0
 3 5 2.0 10 1.0
 4 6 1.5 14 1.0
 5 7 1.5 11 1.0
 6 7 2.0 12 1.0
 7 13 1.0
 8
 9
 10
 11
 12
 13
 14 15 1.0 16 1.0 17 1.0
 15
 16
 17

