%chk=meth_cyclooctatetraene_isomer_sp.chk
# hf/3-21g* pop=full geom=connectivity

Title Card Required

0 1
 C                  1.64318200    1.09787200    0.35876600
 C                  2.12773700   -0.13804200    0.17082500
 C                  1.49590800   -1.22598800   -0.54595900
 C                  0.46072200    1.71813700   -0.19193300
 C                  0.24375600   -1.64056200   -0.31759700
 C                 -0.81171200    1.31210200   -0.30662900
 C                 -0.64393300   -1.01873300    0.69852400
 C                 -1.46170700    0.07868900    0.10197000
 H                  2.25722200    1.80780200    0.94990100
 H                  3.11995000   -0.39186500    0.58996500
 H                  2.13414800   -1.73601200   -1.28790700
 H                  0.68331200    2.74198500   -0.56440800
 H                 -0.18628200   -2.48390800   -0.88004500
 H                 -1.51735400    2.03475700   -0.76867800
 C                 -2.78841900   -0.06778200   -0.04926600
 H                 -3.42282000    0.71455900   -0.48464300
 H                 -3.31526800   -0.98087600    0.25458100
 H                 -0.03060700   -0.59436800    1.54211000
 H                 -1.31551100   -1.80623400    1.13692200

 1 2 2.0 4 1.5 9 1.0
 2 3 1.0 10 1.0
 3 5 2.0 11 1.0
 4 6 2.0 12 1.0
 5 7 1.0 13 1.0
 6 8 1.0 14 1.0
 7 8 1.0 18 1.0 19 1.0
 8 15 2.0
 9
 10
 11
 12
 13
 14
 15 16 1.0 17 1.0
 16
 17
 18
 19

