%chk=AlH3_planar_ion_opt.chk
# opt freq uhf/3-21g pop=full geom=connectivity

Title Card Required

-1 2
 Al                 0.00000000    0.00000000    0.03000000
 H                  0.00000000    1.63397100   -0.29000000
 H                  1.41506000   -0.81698600   -0.29000000
 H                 -1.41506000   -0.81698600   -0.29000000

 1 2 1.0 3 1.0 4 1.0
 2
 3
 4

