%chk=napthal_3-21G.chk
# opt hf/3-21g geom=connectivity

Optimisation 3-21G

0 1
 C                 -3.59343801   -0.18211523   -0.00034666
 C                 -2.19213869   -0.17619820    0.01537508
 C                 -1.49647684    1.04033703    0.01106483
 C                 -2.20211429    2.25095523   -0.00896816
 C                 -3.60341361    2.24503821   -0.02468955
 C                 -4.29907547    1.02850298   -0.02037916
 H                  0.44359236    0.12192016    0.04207997
 H                 -4.12459128   -1.11096687    0.00294481
 H                 -1.65336884   -1.10053207    0.03067067
 C                 -0.09517751    1.04625403    0.02678496
 C                 -1.50645243    3.46749044   -0.01327960
 H                 -4.14218348    3.16937208   -0.03998442
 H                 -5.36899860    1.02398520   -0.03238295
 C                 -0.10515309    3.47340745    0.00244080
 C                  0.60048437    2.26278924    0.02247279
 H                 -2.04522229    4.39182431   -0.02857442
 H                  1.67040752    2.26730700    0.03447482
 C                  0.65931050    4.81025934   -0.00229720
 H                  1.58902751    4.69130617    0.51381948
 H                  0.84772006    5.10980638   -1.01208600
 H                  0.07233720    5.55851711    0.48808292

 1 2 1.5 6 1.5 8 1.0
 2 3 1.5 9 1.0
 3 4 1.5 10 1.5
 4 5 1.5 11 1.5
 5 6 1.5 12 1.0
 6 13 1.0
 7 10 1.0
 8
 9
 10 15 1.5
 11 14 1.5 16 1.0
 12
 13
 14 15 1.5 18 1.0
 15 17 1.0
 16
 17
 18 19 1.0 20 1.0 21 1.0
 19
 20
 21

