%nproc=20
%mem=15GB
%chk=bf3_sp.chk
#p sp hf/3-21g pop=full gfinput gfprint

sp

0 1
 B                  0.00000000    0.00000000   -1.09458200
 F                  1.15261200    0.66546100   -1.16279900
 F                  0.00000000   -1.33092100   -1.16279900
 F                 -1.15261200    0.66546100   -1.16279900











