%nproc=20
%mem=15GB
%chk=C6H6.chk
#p hf/3-21g opt freq gfinput gfprint pop=full

optimisation

0 1
 C                  2.04018503   -3.88082844    0.00167800
 C                  3.43534503   -3.88082844    0.00167800
 C                  4.13288303   -2.67307744    0.00167800
 C                  3.43522903   -1.46456844    0.00047900
 C                  2.04040403   -1.46464644    0.00000000
 C                  1.34280303   -2.67285244    0.00099600
 H                  1.49042603   -4.83314544    0.00212800
 H                  3.98485303   -4.83334144    0.00299300
 H                  5.23256303   -2.67299744    0.00231200
 H                  3.98542903   -0.51242544    0.00042000
 H                  1.49028203   -0.51236544   -0.00095300
 H                  0.24319903   -2.67266944    0.00081600







