%nproc=20
%mem=15GB
%chk=nh3.chk
#p hf/3-21g opt freq gfinput gfprint pop=full

optimisation

0 1
 N                 -0.31128405   -1.12840465    0.00000000
 H                  0.02203784   -2.07121774    0.00000000
 H                  0.02205505   -0.65700447    0.81649673
 H                  0.02205505   -0.65700447   -0.81649673

















