%chk=cycloheptatrienyl_cation_isomer_opt.chk
# opt freq am1 pop=full geom=connectivity

Optimisation

1 1
 C                  0.55022600    1.32934700   -0.08158700
 C                 -0.79862500    1.55630700   -0.20047900
 C                 -1.79906100    0.62843300    0.06052200
 C                  1.22013800    0.06058100   -0.05456700
 C                 -1.71353500   -0.75068600    0.38922700
 C                  0.53535000   -1.13770900   -0.67934100
 C                 -0.67567500   -1.55342700    0.10900400
 H                  1.17444700    2.19834500    0.02860600
 H                 -1.11458000    2.57242200   -0.32620000
 H                 -2.79006500    1.04203500    0.11826100
 H                 -2.57907700   -1.17375400    0.85969800
 H                 -0.73750100   -2.58238500    0.40955600
 C                  2.45390400    0.00390400    0.45752200
 H                  2.96508600    0.88406200    0.79898500
 H                  2.98524100   -0.92294900    0.55145800
 H                  0.22859600   -0.87785200   -1.69032200
 H                  1.23151900   -1.96042400   -0.75183800

 1 2 2.0 4 1.5 8 1.0
 2 3 1.5 9 1.0
 3 5 1.5 10 1.0
 4 6 1.0 13 2.0
 5 7 2.0 11 1.0
 6 7 1.0 16 1.0 17 1.0
 7 12 1.0
 8
 9
 10
 11
 12
 13 14 1.0 15 1.0
 14
 15
 16
 17

