%chk=nh3_sp.chk
# hf/3-21g pop=full geom=connectivity

Title Card Required

0 1
 N                  0.00000000    0.00000000    0.08489200
 H                  0.00000000    0.96180400   -0.19808200
 H                 -0.83294700   -0.48090200   -0.19808200
 H                  0.83294700   -0.48090200   -0.19808200

 1 2 1.0 3 1.0 4 1.0
 2
 3
 4

