%chk=nh3_opt.chk
# opt freq hf/3-21g pop=full geom=connectivity

Title Card Required

0 1
 N                 -0.73770491    1.17486332    0.00000000
 H                 -0.40438301    0.23205023    0.00000000
 H                 -0.40436580    1.64626349    0.81649673
 H                 -0.40436580    1.64626349   -0.81649673

 1 2 1.0 3 1.0 4 1.0
 2
 3
 4

