%chk=nh4_ion_opt.chk
# opt freq hf/3-21g pop=full geom=connectivity

Title Card Required

1 1
 N                  0.00000000    0.00000000    0.00000000
 H                  0.58968100    0.58968100    0.58968100
 H                 -0.58968100   -0.58968100    0.58968100
 H                 -0.58968100    0.58968100   -0.58968100
 H                  0.58968100   -0.58968100   -0.58968100

 1 2 1.0 3 1.0 4 1.0 5 1.0
 2
 3
 4
 5

